# File generated by Flopy version 3.3.5 on 09/02/2022 at 17:25:32.
BEGIN options
END options

BEGIN timing
  TDIS6  mymodel.tdis
END timing

BEGIN models
  gwf6  mymodel.nam  mymodel
END models

BEGIN exchanges
END exchanges

BEGIN solutiongroup  1
  ims6  mymodel.ims  mymodel
END solutiongroup  1

