# File generated by Flopy version 3.3.5 on 09/02/2022 at 17:25:32.
BEGIN options
END options

