# File generated by Flopy version 3.3.5 on 09/02/2022 at 17:25:32.
BEGIN griddata
  strt
    CONSTANT       1.00000000
END griddata

