# File generated by Flopy version 3.3.5 on 09/02/2022 at 17:25:32.
BEGIN options
END options

BEGIN dimensions
  MAXBOUND  2
END dimensions

BEGIN period  1
  1 1 1       1.00000000
  1 10 10       0.00000000
END period  1

