# File generated by Flopy version 3.3.5 on 09/02/2022 at 17:25:32.
BEGIN options
  BUDGET  FILEOUT  mymodel.bud
  HEAD  FILEOUT  mymodel.hds
END options

BEGIN period  1
  SAVE  HEAD  ALL
  SAVE  BUDGET  ALL
END period  1

